
---------- Begin Simulation Statistics ----------
sim_seconds                                  0.000003                       # Number of seconds simulated
sim_ticks                                     2915000                       # Number of ticks simulated
final_tick                                    2915000                       # Number of ticks from beginning of simulation (restored from checkpoints and never reset)
sim_freq                                 1000000000000                       # Frequency of simulated ticks
host_inst_rate                                 248144                       # Simulator instruction rate (inst/s)
host_op_rate                                   287835                       # Simulator op (including micro ops) rate (op/s)
host_tick_rate                              144171324                       # Simulator tick rate (ticks/s)
host_mem_usage                                 690444                       # Number of bytes of host memory used
host_seconds                                     0.02                       # Real time elapsed on the host
sim_insts                                        5014                       # Number of instructions simulated
sim_ops                                          5818                       # Number of ops (including micro ops) simulated
system.voltage_domain.voltage                       1                       # Voltage in Volts
system.clk_domain.clock                          1000                       # Clock period in ticks
system.mem_ctrls.pwrStateResidencyTicks::UNDEFINED      2915000                       # Cumulative time (in ticks) in various power states
system.mem_ctrls.bytes_read::cpu.inst           20108                       # Number of bytes read from this memory
system.mem_ctrls.bytes_read::cpu.data            4672                       # Number of bytes read from this memory
system.mem_ctrls.bytes_read::total              24780                       # Number of bytes read from this memory
system.mem_ctrls.bytes_inst_read::cpu.inst        20108                       # Number of instructions bytes read from this memory
system.mem_ctrls.bytes_inst_read::total         20108                       # Number of instructions bytes read from this memory
system.mem_ctrls.bytes_written::cpu.data         3696                       # Number of bytes written to this memory
system.mem_ctrls.bytes_written::total            3696                       # Number of bytes written to this memory
system.mem_ctrls.num_reads::cpu.inst             5027                       # Number of read requests responded to by this memory
system.mem_ctrls.num_reads::cpu.data             1061                       # Number of read requests responded to by this memory
system.mem_ctrls.num_reads::total                6088                       # Number of read requests responded to by this memory
system.mem_ctrls.num_writes::cpu.data             936                       # Number of write requests responded to by this memory
system.mem_ctrls.num_writes::total                936                       # Number of write requests responded to by this memory
system.mem_ctrls.bw_read::cpu.inst         6898113208                       # Total read bandwidth from this memory (bytes/s)
system.mem_ctrls.bw_read::cpu.data         1602744425                       # Total read bandwidth from this memory (bytes/s)
system.mem_ctrls.bw_read::total            8500857633                       # Total read bandwidth from this memory (bytes/s)
system.mem_ctrls.bw_inst_read::cpu.inst    6898113208                       # Instruction read bandwidth from this memory (bytes/s)
system.mem_ctrls.bw_inst_read::total       6898113208                       # Instruction read bandwidth from this memory (bytes/s)
system.mem_ctrls.bw_write::cpu.data        1267924528                       # Write bandwidth from this memory (bytes/s)
system.mem_ctrls.bw_write::total           1267924528                       # Write bandwidth from this memory (bytes/s)
system.mem_ctrls.bw_total::cpu.inst        6898113208                       # Total bandwidth to/from this memory (bytes/s)
system.mem_ctrls.bw_total::cpu.data        2870668954                       # Total bandwidth to/from this memory (bytes/s)
system.mem_ctrls.bw_total::total           9768782161                       # Total bandwidth to/from this memory (bytes/s)
